REMARK  3 active torsions:
REMARK  status: ('A' for Active; 'I' for Inactive)
REMARK    1  A    between atoms: N_1  and  C_3 
REMARK    2  A    between atoms: N_2  and  C_9 
REMARK    3  A    between atoms: C_3  and  C_9 
ROOT
HETATM    1  C   UNL     1       0.601  -0.018   0.425  1.00  0.00     0.181 C 
HETATM    2  C   UNL     1      -0.055  -1.255  -0.224  1.00  0.00     0.043 C 
HETATM    3  C   UNL     1      -0.057   1.273  -0.109  1.00  0.00     0.043 C 
HETATM    4  C   UNL     1      -1.582  -1.260  -0.117  1.00  0.00     0.003 C 
HETATM    5  C   UNL     1      -1.583   1.266   0.000  1.00  0.00     0.003 C 
HETATM    6  C   UNL     1      -2.188   0.030  -0.659  1.00  0.00     0.000 C 
ENDROOT
BRANCH   1   7
HETATM    7  N   UNL     1       0.465  -0.096   1.886  1.00  0.00     0.089 N 
HETATM    8  H   UNL     1       0.870  -0.968   2.227  1.00  0.00     0.313 HD
HETATM    9  H   UNL     1      -0.516  -0.116   2.155  1.00  0.00     0.313 HD
ENDBRANCH   1   7
BRANCH   1  10
HETATM   10  C   UNL     1       2.104  -0.003   0.110  1.00  0.00     0.307 C 
BRANCH  10  11
HETATM   11  N   UNL     1       2.294   0.062  -1.312  1.00  0.00     0.080 N 
HETATM   12  H   UNL     1       1.925   0.907  -1.733  1.00  0.00     0.312 HD
HETATM   13  H   UNL     1       1.927  -0.741  -1.809  1.00  0.00     0.312 HD
ENDBRANCH  10  11
ENDBRANCH   1  10
TORSDOF 3
